     3
 geometry
 C                     0.00000008    -0.00000005    -0.50125098
 N                    -0.00000008     0.00000004     0.65530402
 H                     0.00000000     0.00000000    -1.56265505
     3
 geometry
 C                     0.07750001    -0.04246659    -0.51106895
 N                    -0.09253907     0.05611204     0.62884840
 H                    -0.00004244     0.00000359    -1.56266179
     3
 geometry
 C                     0.15859275    -0.08675853    -0.51823754
 N                    -0.17514400     0.10639765     0.58205648
 H                    -0.00005989    -0.00001635    -1.56254779
     3
 geometry
 C                     0.24804549    -0.13618356    -0.51810093
 N                    -0.23317302     0.14126441     0.51115467
 H                    -0.00011830    -0.00004503    -1.56242739
     3
 geometry
 C                     0.32878300    -0.18081844    -0.50783904
 N                    -0.29080560     0.17583800     0.42744315
 H                    -0.00012967    -0.00000139    -1.56233447
     3
 geometry
 C                     0.39456097    -0.21679017    -0.47737448
 N                    -0.35201554     0.21313687     0.33205152
 H                    -0.00015284    -0.00000496    -1.56236112
     3
 geometry
 C                     0.45716492    -0.25053357    -0.42647497
 N                    -0.40048966     0.24336057     0.23494184
 H                    -0.00026755     0.00009625    -1.56236394
     3
 geometry
 C                     0.51824749    -0.28327980    -0.35481986
 N                    -0.42973537     0.26192540     0.14059533
 H                    -0.00030508     0.00002876    -1.56227613
     3
 geometry
 C                     0.57387472    -0.31261805    -0.27107734
 N                    -0.44149034     0.27043923     0.04628356
 H                    -0.00044170     0.00011386    -1.56217274
     3
 geometry
 C                     0.61922262    -0.33572428    -0.18087945
 N                    -0.43642355     0.26914406    -0.05024587
 H                    -0.00051791     0.00019789    -1.56212450
     3
 geometry
 C                     0.65142022    -0.35113844    -0.08709658
 N                    -0.41629347     0.25958659    -0.14760878
 H                    -0.00058197     0.00021274    -1.56213510
     3
 geometry
 C                     0.66989961    -0.35892713     0.00958440
 N                    -0.38315450     0.24231366    -0.24192469
 H                    -0.00058029     0.00027415    -1.56216406
     3
 geometry
 C                     0.67100980    -0.35719199     0.11019494
 N                    -0.34040367     0.21934370    -0.32878614
 H                    -0.00061660     0.00025723    -1.56223309
     3
 geometry
 C                     0.65112363    -0.34421911     0.21409569
 N                    -0.28945572     0.19077310    -0.40180828
 H                    -0.00074401     0.00029442    -1.56227634
     3
 geometry
 C                     0.59635786    -0.31385919     0.31920112
 N                    -0.24110548     0.16107614    -0.45490201
 H                    -0.00081949     0.00027810    -1.56232922
     3
 geometry
 C                     0.51010558    -0.26686344     0.42026559
 N                    -0.20028880     0.13573035    -0.48948716
 H                    -0.00088103     0.00019471    -1.56238180
     3
 geometry
 C                     0.40879973    -0.21108403     0.51024710
 N                    -0.15804900     0.10958754    -0.50968987
 H                    -0.00091858     0.00028467    -1.56247282
     3
 geometry
 C                     0.32168767    -0.16182103     0.57474277
 N                    -0.08953544     0.06957141    -0.52660472
 H                    -0.00102732     0.00035383    -1.56257904
     3
 geometry
 C                     0.25955168    -0.12736035     0.59755342
 N                     0.01718904     0.00760514    -0.54999581
 H                    -0.00105372     0.00030876    -1.56254892
     3
 geometry
 C                     0.13621635    -0.05811875     0.60713316
 N                     0.06195370    -0.02651769    -0.56605474
 H                    -0.00108425     0.00032901    -1.56260240
