     3
 geometry
 C                     0.00000000     0.00000000    -0.49431445
 N                     0.00000000     0.00000000     0.64669571
 H                     0.00000000     0.00000000    -1.56098327
     3
 geometry
 C                    -0.18811015    -0.24496150    -0.55520921
 N                     0.11050039     0.12176941     0.61563499
 H                     0.00002019    -0.00005900    -1.56087831
     3
 geometry
 C                    -0.29914347    -0.38929450    -0.39617151
 N                     0.19906996     0.21943468     0.39485982
 H                     0.00008127     0.00001549    -1.56075674
     3
 geometry
 C                    -0.38920032    -0.50324696    -0.17659401
 N                     0.26532771     0.29682316     0.18144483
 H                     0.00002847     0.00009585    -1.56076151
     3
 geometry
 C                    -0.46228836    -0.59900131     0.07053398
 N                     0.31224771     0.34776433    -0.03311860
 H                     0.00000298     0.00010194    -1.56073445
     3
 geometry
 C                    -0.52231152    -0.67826838     0.32790550
 N                     0.35718007     0.39629022    -0.24500964
 H                     0.00002798     0.00012389    -1.56074311
     3
 geometry
 C                    -0.43826086    -0.57610776     0.61005130
 N                     0.32517190     0.35440620    -0.42448042
 H                     0.00004367     0.00010452    -1.56075382
     3
 geometry
 C                    -0.24789935    -0.35328786     0.70300797
 N                     0.20741653     0.20275295    -0.44270498
 H                    -0.00000227     0.00020962    -1.56082706
     3
 geometry
 C                    -0.08624582    -0.17632389     0.90593109
 N                     0.11435537     0.07438478    -0.53724315
 H                     0.00006343     0.00016552    -1.56080970
     3
 geometry
 C                     0.02151973    -0.05578500     0.61769084
 N                     0.01591467    -0.02060928    -0.53954464
 H                     0.01108317     0.00971185    -1.53707010
